
     RDKit          3D

 33 36  0  0  0  0  0  0  0  0999 V2000
   -2.1320   -3.0010   -1.2443 N   0  0  0  0  0  0  0  0  0  0  0  0
   -0.9309   -2.4756   -1.1410 C   0  0  0  0  0  0  0  0  0  0  0  0
    0.3280   -1.9149   -1.0445 C   0  0  0  0  0  0  0  0  0  0  0  0
    1.4575   -2.5268   -1.7234 C   0  0  0  0  0  0  0  0  0  0  0  0
    2.6325   -1.8651   -1.5288 C   0  0  0  0  0  0  0  0  0  0  0  0
    2.8762   -0.7544   -0.8370 C   0  0  0  0  0  0  0  0  0  0  0  0
    4.1550   -0.2377   -0.4508 C   0  0  0  0  0  0  0  0  0  0  0  0
    5.1181   -1.1660   -0.0187 C   0  0  0  0  0  0  0  0  0  0  0  0
    6.3135   -0.7583    0.4778 C   0  0  0  0  0  0  0  0  0  0  0  0
    6.6532    0.5405    0.5631 N   0  0  0  0  0  0  0  0  0  0  0  0
    5.7497    1.4825    0.1182 C   0  0  0  0  0  0  0  0  0  0  0  0
    6.0601    2.8800    0.1773 C   0  0  0  0  0  0  0  0  0  0  0  0
    7.2723    3.1296    0.7102 O   0  0  0  0  0  0  0  0  0  0  0  0
    5.4183    3.9655   -0.1758 O   0  0  0  0  0  1  0  0  0  0  0  0
    4.5504    1.0527   -0.3526 C   0  0  0  0  0  0  0  0  0  0  0  0
    1.7246   -0.1681   -0.1906 C   0  0  0  0  0  0  0  0  0  0  0  0
    0.5329   -0.7963   -0.3397 C   0  0  0  0  0  0  0  0  0  0  0  0
   -0.6342   -0.3751    0.4857 C   0  0  0  0  0  0  0  0  0  0  0  0
   -1.7700    0.0375   -0.0380 C   0  0  0  0  0  0  0  0  0  0  0  0
   -2.9509    0.2168    0.6384 C   0  0  0  0  0  0  0  0  0  0  0  0
   -4.2697    0.5408    0.1099 C   0  0  0  0  0  0  0  0  0  0  0  0
   -4.5104    0.0943   -1.3280 C   0  0  0  0  0  0  0  0  0  0  0  0
   -5.4767    0.8987   -1.8977 O   0  0  0  0  0  0  0  0  0  0  0  0
   -5.7350    1.9705   -1.0499 C   0  0  0  0  0  0  0  0  0  0  0  0
   -4.6905    1.9601    0.0497 C   0  0  0  0  0  0  0  0  0  0  0  0
   -5.2735    2.3857    1.2686 F   0  0  0  0  0  0  0  0  0  0  0  0
   -2.8435   -0.1050    2.0090 C   0  0  0  0  0  0  0  0  0  0  0  0
   -4.0710   -0.1503    2.7946 C   0  0  0  0  0  0  0  0  0  0  0  0
   -5.0882   -0.1752    3.4641 N   0  0  0  0  0  0  0  0  0  0  0  0
   -1.6697   -0.5398    2.6286 C   0  0  0  0  0  0  0  0  0  0  0  0
   -0.5563   -0.6721    1.8423 C   0  0  0  0  0  0  0  0  0  0  0  0
    0.7583   -1.1438    2.2884 C   0  0  0  0  0  0  0  0  0  0  0  0
    1.7732   -1.5156    2.6396 N   0  0  0  0  0  0  0  0  0  0  0  0
  1  2  3  0
  2  3  1  0
  3  4  2  0
  4  5  1  0
  5  6  2  0
  6  7  1  0
  7  8  2  0
  8  9  1  0
  9 10  2  0
 10 11  1  0
 11 12  1  0
 12 13  2  0
 12 14  1  0
 11 15  2  0
  6 16  1  0
 16 17  2  0
 17 18  1  0
 18 19  2  0
 19 20  1  0
 20 21  1  0
 21 22  1  0
 22 23  1  0
 23 24  1  0
 24 25  1  0
 25 26  1  0
 20 27  2  0
 27 28  1  0
 28 29  3  0
 27 30  1  0
 30 31  2  0
 31 32  1  0
 32 33  3  0
 17  3  1  0
 31 18  1  0
 15  7  1  0
 25 21  1  0
M  CHG  1  14  -1
M  END
$$$$
