
     RDKit          3D

 30 32  0  0  0  0  0  0  0  0999 V2000
   -4.5003   -1.3578    1.7583 C   0  0  0  0  0  0  0  0  0  0  0  0
   -3.5701   -0.4382    1.0539 C   0  0  0  0  0  0  0  0  0  0  0  0
   -3.3338    0.8593    1.4674 C   0  0  0  0  0  0  0  0  0  0  0  0
   -2.4725    1.7003    0.8042 C   0  0  0  0  0  0  0  0  0  0  0  0
   -1.8073    1.2558   -0.3187 C   0  0  0  0  0  0  0  0  0  0  0  0
   -0.9023    2.1654   -1.0298 C   0  0  0  0  0  0  0  0  0  0  0  0
   -1.4384    3.1927   -1.8154 C   0  0  0  0  0  0  0  0  0  0  0  0
   -0.6158    4.0572   -2.5018 C   0  0  0  0  0  0  0  0  0  0  0  0
    0.7471    3.9041   -2.4104 C   0  0  0  0  0  0  0  0  0  0  0  0
    1.5832    4.8374   -3.1530 C   0  0  0  0  0  0  0  0  0  0  0  0
    2.2509    5.5632   -3.7554 N   0  0  0  0  0  0  0  0  0  0  0  0
    1.2598    2.8947   -1.6378 C   0  0  0  0  0  0  0  0  0  0  0  0
    0.4608    2.0063   -0.9333 C   0  0  0  0  0  0  0  0  0  0  0  0
    1.0863    0.9643   -0.1305 C   0  0  0  0  0  0  0  0  0  0  0  0
    0.9077    0.9222    1.2358 C   0  0  0  0  0  0  0  0  0  0  0  0
    1.4815   -0.0454    2.0370 C   0  0  0  0  0  0  0  0  0  0  0  0
    1.2646   -0.0465    3.4605 C   0  0  0  0  0  0  0  0  0  0  0  0
    1.1053   -0.0342    4.6064 N   0  0  0  0  0  0  0  0  0  0  0  0
    2.2800   -1.0299    1.4508 C   0  0  0  0  0  0  0  0  0  0  0  0
    2.4722   -1.0085    0.0921 C   0  0  0  0  0  0  0  0  0  0  0  0
    3.3033   -2.0363   -0.5185 C   0  0  0  0  0  0  0  0  0  0  0  0
    3.5198   -1.9912   -1.7665 O   0  0  0  0  0  0  0  0  0  0  0  0
    3.9039   -3.1068    0.1801 N   0  0  0  0  0  0  0  0  0  0  0  0
    4.7231   -4.0885   -0.4914 C   0  0  0  0  0  0  0  0  0  0  0  0
    4.8770   -3.9367   -1.7253 O   0  0  0  0  0  0  0  0  0  0  0  0
    5.2987   -5.1373    0.2167 O   0  0  0  0  0  0  0  0  0  0  0  0
    1.8767   -0.0152   -0.6910 C   0  0  0  0  0  0  0  0  0  0  0  0
   -2.0365   -0.0327   -0.7361 C   0  0  0  0  0  0  0  0  0  0  0  0
   -2.9007   -0.8824   -0.0741 C   0  0  0  0  0  0  0  0  0  0  0  0
   -3.1595   -2.2841   -0.5319 C   0  0  0  0  0  0  0  0  0  0  0  0
  1  2  1  0
  2  3  2  0
  3  4  1  0
  4  5  2  0
  5  6  1  0
  6  7  2  0
  7  8  1  0
  8  9  2  0
  9 10  1  0
 10 11  3  0
  9 12  1  0
 12 13  2  0
 13 14  1  0
 14 15  2  0
 15 16  1  0
 16 17  1  0
 17 18  3  0
 16 19  2  0
 19 20  1  0
 20 21  1  0
 21 22  2  0
 21 23  1  0
 23 24  1  0
 24 25  2  0
 24 26  1  0
 20 27  2  0
  5 28  1  0
 28 29  2  0
 29 30  1  0
 29  2  1  0
 13  6  1  0
 27 14  1  0
M  END
$$$$
