
     RDKit          3D

 30 32  0  0  0  0  0  0  0  0999 V2000
   -3.8708    3.1257   -2.5417 C   0  0  0  0  0  0  0  0  0  0  0  0
   -4.0156    3.4728   -1.3067 C   0  0  0  0  0  0  0  0  0  0  0  0
   -3.5612    2.5463   -0.2444 C   0  0  0  0  0  0  0  0  0  0  0  0
   -3.9853    2.9467    1.1031 C   0  0  0  0  0  0  0  0  0  0  0  0
   -3.6381    2.2118    2.1785 C   0  0  0  0  0  0  0  0  0  0  0  0
   -2.8290    1.0303    1.9169 C   0  0  0  0  0  0  0  0  0  0  0  0
   -2.4182    0.3015    3.1498 C   0  0  0  0  0  0  0  0  0  0  0  0
   -2.9114    0.5571    4.3182 C   0  0  0  0  0  0  0  0  0  0  0  0
   -2.4380    0.6859    0.7700 C   0  0  0  0  0  0  0  0  0  0  0  0
   -1.8703   -0.6048    0.3701 C   0  0  0  0  0  0  0  0  0  0  0  0
   -2.8969   -1.7024    0.2678 C   0  0  0  0  0  0  0  0  0  0  0  0
   -2.6161   -2.9335   -0.1890 C   0  0  0  0  0  0  0  0  0  0  0  0
   -3.6830   -3.9403   -0.1882 C   0  0  0  0  0  0  0  0  0  0  0  0
   -2.9812   -5.2539    0.1427 N   0  0  0  0  0  0  0  0  0  0  0  0
   -4.8390   -3.8423   -0.4148 O   0  0  0  0  0  0  0  0  0  0  0  0
   -1.3440   -3.1630   -0.5637 C   0  0  0  0  0  0  0  0  0  0  0  0
   -0.3568   -2.2829   -0.5176 C   0  0  0  0  0  0  0  0  0  0  0  0
   -0.7064   -0.9859   -0.0252 C   0  0  0  0  0  0  0  0  0  0  0  0
    0.3813   -0.0747   -0.5394 C   0  0  0  0  0  0  0  0  0  0  0  0
    1.5324   -0.6265   -0.5933 C   0  0  0  0  0  0  0  0  0  0  0  0
    2.6910   -0.1538   -1.0915 N   0  0  0  0  0  0  0  0  0  0  0  0
    2.6096    0.4274   -2.4829 C   0  0  0  0  0  0  0  0  0  0  0  0
    3.9235    0.5278   -3.0171 C   0  0  0  0  0  0  0  0  0  0  0  0
    4.8239    0.4429   -1.8626 C   0  0  0  0  0  0  0  0  0  0  0  0
    4.0431   -0.2086   -0.7661 C   0  0  0  0  0  0  0  0  0  0  0  0
    4.6575   -0.1549    0.5523 C   0  0  0  0  0  0  0  0  0  0  0  0
    4.4787   -1.0483    1.4075 O   0  0  0  0  0  0  0  0  0  0  0  0
    5.4946    0.9353    0.9154 N   0  0  0  0  0  0  0  0  0  0  0  0
    6.1036    0.9739    2.2847 C   0  0  0  0  0  0  0  0  0  0  0  0
   -2.8052    1.4538   -0.4410 C   0  0  0  0  0  0  0  0  0  0  0  0
  1  2  2  0
  2  3  1  0
  3  4  2  0
  4  5  1  0
  5  6  2  0
  6  7  1  0
  7  8  2  0
  6  9  1  0
  9 10  1  0
 10 11  2  0
 11 12  1  0
 12 13  1  0
 13 14  1  0
 13 15  2  0
 12 16  2  0
 16 17  1  0
 17 18  2  0
 18 19  1  0
 19 20  2  3
 20 21  1  0
 21 22  1  0
 22 23  1  0
 23 24  1  0
 24 25  1  0
 25 26  1  0
 26 27  2  0
 26 28  1  0
 28 29  1  0
  9 30  2  0
 30  3  1  0
 18 10  1  0
 25 21  1  0
M  END
$$$$
