
     RDKit          3D

 34 38  0  0  0  0  0  0  0  0999 V2000
   -3.9479   -2.2320   -1.5024 C   0  0  0  0  0  0  0  0  0  0  0  0
   -5.1257   -1.5457   -1.4458 C   0  0  0  0  0  0  0  0  0  0  0  0
   -5.4305   -0.8129   -0.2955 C   0  0  0  0  0  0  0  0  0  0  0  0
   -4.5456   -0.7919    0.7599 C   0  0  0  0  0  0  0  0  0  0  0  0
   -3.3441   -1.4854    0.7152 C   0  0  0  0  0  0  0  0  0  0  0  0
   -3.0886   -2.1936   -0.4413 C   0  0  0  0  0  0  0  0  0  0  0  0
   -2.4429   -1.4539    1.8072 N   0  0  0  0  0  0  0  0  0  0  0  0
   -1.2310   -2.1857    1.7027 C   0  0  0  0  0  0  0  0  0  0  0  0
   -1.1676   -3.4714    2.1207 N   0  0  0  0  0  0  0  0  0  0  0  0
   -0.0054   -4.1375    2.0067 C   0  0  0  0  0  0  0  0  0  0  0  0
    1.1290   -3.5358    1.4704 C   0  0  0  0  0  0  0  0  0  0  0  0
    1.0559   -2.2266    1.0491 C   0  0  0  0  0  0  0  0  0  0  0  0
   -0.1458   -1.5915    1.1842 N   0  0  0  0  0  0  0  0  0  0  0  0
    2.1459   -1.5121    0.5375 N   0  0  0  0  0  0  0  0  0  0  0  0
    2.0118   -0.1498    0.1005 C   0  0  0  0  0  0  0  0  0  0  0  0
    3.3176    0.4177   -0.4136 C   0  0  0  0  0  0  0  0  0  0  0  0
    4.3966    0.4180    0.6078 C   0  0  0  0  0  0  0  0  0  0  0  0
    5.6063    0.9687    0.0412 N   0  0  0  0  0  0  0  0  0  0  0  0
    5.7384    2.2715   -0.4666 C   0  0  0  0  0  0  0  0  0  0  0  0
    4.7608    3.0489   -0.4440 O   0  0  0  0  0  0  0  0  0  0  0  0
    7.0199    2.7879   -1.0468 C   0  0  0  0  0  0  0  0  0  0  0  0
    6.9305    4.2070   -1.5284 C   0  0  0  0  0  0  0  0  0  0  0  0
    7.9441    4.6122   -0.4974 C   0  0  0  0  0  0  0  0  0  0  0  0
    8.0324    3.2060   -0.0209 C   0  0  0  0  0  0  0  0  0  0  0  0
    2.3663   -4.3331    1.3252 C   0  0  0  0  0  0  0  0  0  0  0  0
    2.4251   -5.5474    0.5068 C   0  0  0  0  0  0  0  0  0  0  0  0
    3.0163   -4.3411   -0.0705 C   0  0  0  0  0  0  0  0  0  0  0  0
   -6.7160   -0.0891   -0.2748 C   0  0  0  0  0  0  0  0  0  0  0  0
   -6.6247    1.2079   -0.8168 N   0  0  0  0  0  0  0  0  0  0  0  0
   -8.0108    1.9089   -0.7595 C   0  0  0  0  0  0  0  0  0  0  0  0
   -7.7208    2.4156    0.5257 C   0  0  0  0  0  0  0  0  0  0  0  0
   -6.7236    3.3492   -0.0817 O   0  0  0  0  0  0  0  0  0  0  0  0
   -5.6780    3.0480   -1.1049 C   0  0  0  0  0  0  0  0  0  0  0  0
   -5.2957    1.8752   -0.3943 C   0  0  0  0  0  0  0  0  0  0  0  0
  1  2  2  0
  2  3  1  0
  3  4  2  0
  4  5  1  0
  5  6  2  0
  5  7  1  0
  7  8  1  0
  8  9  2  0
  9 10  1  0
 10 11  2  0
 11 12  1  0
 12 13  2  0
 12 14  1  0
 14 15  1  0
 15 16  1  0
 16 17  1  0
 17 18  1  0
 18 19  1  0
 19 20  2  0
 19 21  1  0
 21 22  1  0
 22 23  1  0
 23 24  1  0
 11 25  1  0
 25 26  1  0
 26 27  1  0
  3 28  1  0
 28 29  1  0
 29 30  1  0
 30 31  1  0
 31 32  1  0
 32 33  1  0
 33 34  1  0
  6  1  1  0
 13  8  1  0
 24 21  1  0
 27 25  1  0
 34 29  1  0
M  END
$$$$
